REMARK SMILES C=Cc1ccc(OC)cc1
REMARK SMILES IDX 6 1 5 2 4 3 3 4 10 5 9 6 7 7 8 8 2 9 1 10
REMARK H PARENT
ROOT
ATOM      1  C   LIG     1       1.414  -0.237  -0.082  1.00  0.00     0.118 A 
ATOM      2  C   LIG     1       0.807   1.002   0.112  1.00  0.00     0.047 A 
ATOM      3  C   LIG     1      -0.586   1.094   0.228  1.00  0.00     0.012 A 
ATOM      4  C   LIG     1      -1.393  -0.047   0.139  1.00  0.00    -0.026 A 
ATOM      5  C   LIG     1      -0.776  -1.289  -0.041  1.00  0.00     0.012 A 
ATOM      6  C   LIG     1       0.616  -1.380  -0.155  1.00  0.00     0.047 A 
ENDROOT
BRANCH   1   7
ATOM      7  O   LIG     1       2.756  -0.467  -0.209  1.00  0.00    -0.497 OA
ATOM      8  C   LIG     1       3.610   0.668  -0.150  1.00  0.00     0.278 C 
ENDBRANCH   1   7
BRANCH   4   9
ATOM      9  C   LIG     1      -2.847   0.097   0.294  1.00  0.00     0.000 C 
ATOM     10  C   LIG     1      -3.758  -0.666  -0.324  1.00  0.00     0.009 C 
ENDBRANCH   4   9
TORSDOF 2
