
     RDKit          3D

 20 20  0  0  0  0  0  0  0  0999 V2000
    3.6103    0.6677   -0.1501 C   0  0  0  0  0  0  0  0  0  0  0  0
    2.7559   -0.4673   -0.2093 O   0  0  0  0  0  0  0  0  0  0  0  0
    1.4141   -0.2374   -0.0822 C   0  0  0  0  0  0  0  0  0  0  0  0
    0.8073    1.0022    0.1124 C   0  0  0  0  0  0  0  0  0  0  0  0
   -0.5863    1.0938    0.2275 C   0  0  0  0  0  0  0  0  0  0  0  0
   -1.3935   -0.0472    0.1385 C   0  0  0  0  0  0  0  0  0  0  0  0
   -0.7756   -1.2891   -0.0414 C   0  0  0  0  0  0  0  0  0  0  0  0
    0.6155   -1.3798   -0.1554 C   0  0  0  0  0  0  0  0  0  0  0  0
   -2.8470    0.0968    0.2944 C   0  0  0  0  0  0  0  0  0  0  0  0
   -3.7578   -0.6662   -0.3236 C   0  0  0  0  0  0  0  0  0  0  0  0
    3.5414    1.1632    0.8240 H   0  0  0  0  0  0  0  0  0  0  0  0
    3.3965    1.3662   -0.9658 H   0  0  0  0  0  0  0  0  0  0  0  0
    4.6398    0.3178   -0.2731 H   0  0  0  0  0  0  0  0  0  0  0  0
    1.3842    1.9180    0.1811 H   0  0  0  0  0  0  0  0  0  0  0  0
   -1.0358    2.0729    0.3789 H   0  0  0  0  0  0  0  0  0  0  0  0
   -1.3631   -2.2023   -0.0846 H   0  0  0  0  0  0  0  0  0  0  0  0
    1.0799   -2.3526   -0.2978 H   0  0  0  0  0  0  0  0  0  0  0  0
   -3.1829    0.8984    0.9483 H   0  0  0  0  0  0  0  0  0  0  0  0
   -3.4856   -1.4624   -1.0086 H   0  0  0  0  0  0  0  0  0  0  0  0
   -4.8175   -0.4925   -0.1643 H   0  0  0  0  0  0  0  0  0  0  0  0
  1  2  1  0
  2  3  1  0
  3  4  2  0
  4  5  1  0
  5  6  2  0
  6  7  1  0
  7  8  2  0
  6  9  1  0
  9 10  2  0
  8  3  1  0
  1 11  1  0
  1 12  1  0
  1 13  1  0
  4 14  1  0
  5 15  1  0
  7 16  1  0
  8 17  1  0
  9 18  1  0
 10 19  1  0
 10 20  1  0
M  END
$$$$
