
     RDKit          3D

 12 12  0  0  0  0  0  0  0  0999 V2000
    2.9930   -0.6158   -0.9773 N   0  0  0  0  0  0  0  0  0  0  0  0
    1.9489   -0.3005   -0.6448 N   0  0  0  0  0  0  0  0  0  0  0  0
    0.7394    0.0212   -0.2740 C   0  0  0  0  0  0  0  0  0  0  0  0
   -0.4751   -0.7708   -0.4505 C   0  0  0  0  0  0  0  0  0  0  0  0
   -1.3267   -0.0735    0.5924 C   0  0  0  0  0  0  0  0  0  0  0  0
   -0.7982    1.2529    0.7780 O   0  0  0  0  0  0  0  0  0  0  0  0
    0.4948    1.3125    0.3778 C   0  0  0  0  0  0  0  0  0  0  0  0
    1.2901    2.2138    0.4860 O   0  0  0  0  0  0  0  0  0  0  0  0
   -0.3374   -1.8363   -0.2613 H   0  0  0  0  0  0  0  0  0  0  0  0
   -0.8645   -0.6087   -1.4597 H   0  0  0  0  0  0  0  0  0  0  0  0
   -2.3718   -0.0040    0.2756 H   0  0  0  0  0  0  0  0  0  0  0  0
   -1.2925   -0.5908    1.5579 H   0  0  0  0  0  0  0  0  0  0  0  0
  1  2  2  0
  2  3  2  0
  3  4  1  0
  4  5  1  0
  5  6  1  0
  6  7  1  0
  7  8  2  0
  7  3  1  0
  4  9  1  0
  4 10  1  0
  5 11  1  0
  5 12  1  0
M  CHG  2   1  -1   2   1
M  END
$$$$
