REMARK SMILES CCCC[C@H](CC)COC(=O)c1ccccc1C(=O)OC[C@@H](CC)CCCC
REMARK SMILES IDX 12 1 13 2 14 3 15 4 16 5 17 6 10 7 11 8 9 9 8 10 5 11 4 12
REMARK SMILES IDX 3 13 2 14 1 15 6 16 7 17 18 18 19 19 20 20 21 21 22 22 25 23
REMARK SMILES IDX 26 24 27 25 28 26 23 27 24 28
REMARK H PARENT
ROOT
ATOM      1  C   LIG     1      -0.881  -1.987  -0.694  1.00  0.00     0.074 A 
ATOM      2  C   LIG     1      -1.423  -3.264  -0.902  1.00  0.00     0.016 A 
ATOM      3  C   LIG     1      -0.724  -4.396  -0.479  1.00  0.00     0.001 A 
ATOM      4  C   LIG     1       0.516  -4.260   0.145  1.00  0.00     0.001 A 
ATOM      5  C   LIG     1       1.058  -2.990   0.358  1.00  0.00     0.016 A 
ATOM      6  C   LIG     1       0.358  -1.849  -0.062  1.00  0.00     0.074 A 
ENDROOT
BRANCH   1   7
ATOM      7  C   LIG     1      -1.586  -0.808  -1.227  1.00  0.00     0.339 C 
ATOM      8  O   LIG     1      -1.064   0.026  -1.947  1.00  0.00    -0.246 OA
BRANCH   7   9
ATOM      9  O   LIG     1      -2.869  -0.837  -0.796  1.00  0.00    -0.462 OA
BRANCH   9  10
ATOM     10  C   LIG     1      -3.646   0.295  -1.207  1.00  0.00     0.236 C 
BRANCH  10  11
ATOM     11  C   LIG     1      -5.069   0.193  -0.621  1.00  0.00     0.027 C 
BRANCH  11  12
ATOM     12  C   LIG     1      -5.005   0.161   0.925  1.00  0.00     0.007 C 
BRANCH  12  13
ATOM     13  C   LIG     1      -6.167   0.887   1.620  1.00  0.00     0.000 C 
BRANCH  13  14
ATOM     14  C   LIG     1      -5.859   2.337   2.008  1.00  0.00    -0.003 C 
ATOM     15  C   LIG     1      -5.626   3.263   0.826  1.00  0.00     0.004 C 
ENDBRANCH  13  14
ENDBRANCH  12  13
ENDBRANCH  11  12
BRANCH  11  16
ATOM     16  C   LIG     1      -5.772  -1.053  -1.209  1.00  0.00     0.004 C 
ATOM     17  C   LIG     1      -7.239  -1.185  -0.832  1.00  0.00     0.004 C 
ENDBRANCH  11  16
ENDBRANCH  10  11
ENDBRANCH   9  10
ENDBRANCH   7   9
ENDBRANCH   1   7
BRANCH   6  18
ATOM     18  C   LIG     1       0.895  -0.513   0.250  1.00  0.00     0.339 C 
ATOM     19  O   LIG     1       0.251   0.366   0.795  1.00  0.00    -0.246 OA
BRANCH  18  20
ATOM     20  O   LIG     1       2.188  -0.458  -0.148  1.00  0.00    -0.462 OA
BRANCH  20  21
ATOM     21  C   LIG     1       2.812   0.817   0.072  1.00  0.00     0.236 C 
BRANCH  21  22
ATOM     22  C   LIG     1       4.274   0.749  -0.408  1.00  0.00     0.027 C 
BRANCH  22  23
ATOM     23  C   LIG     1       5.077  -0.261   0.448  1.00  0.00     0.007 C 
BRANCH  23  24
ATOM     24  C   LIG     1       6.491  -0.560  -0.069  1.00  0.00     0.000 C 
BRANCH  24  25
ATOM     25  C   LIG     1       7.585   0.212   0.669  1.00  0.00    -0.003 C 
ATOM     26  C   LIG     1       8.969  -0.164   0.159  1.00  0.00     0.004 C 
ENDBRANCH  24  25
ENDBRANCH  23  24
ENDBRANCH  22  23
BRANCH  22  27
ATOM     27  C   LIG     1       4.894   2.157  -0.481  1.00  0.00     0.004 C 
ATOM     28  C   LIG     1       4.958   2.908   0.843  1.00  0.00     0.004 C 
ENDBRANCH  22  27
ENDBRANCH  21  22
ENDBRANCH  20  21
ENDBRANCH  18  20
ENDBRANCH   6  18
TORSDOF 16
